    4
Geometry Step: 53
    H     -1.00000000      0.00000000      0.42032012      0.77668338
    N      0.00000000      0.00000000      0.86462236      5.48884150
    H      1.00000000      1.00000000      0.73043251      0.86723756
    H      1.00000000     -1.00000000      0.73043251      0.86723756
