    4
Geometry Step: 25
    H     -1.00000000      0.00000000      0.00000000      0.76922597
    N      0.00000000      0.00000000      0.00000000      5.46260031
    H      1.00000000      1.00000000      0.75443993      0.88408686
    H      1.00000000      1.00000000     -0.75443993      0.88408686
